#======================================================================

# CRYSTAL DATA

#----------------------------------------------------------------------

data_VESTA_phase_1


_chemical_name_common                  '221_2_6_nozeolite_relaxed'
_cell_length_a                         18.18972
_cell_length_b                         18.09722
_cell_length_c                         18.01476
_cell_angle_alpha                      91.68771
_cell_angle_beta                       90.12490
_cell_angle_gamma                      92.14571
_space_group_name_H-M_alt              'P 1'
_space_group_IT_number                 1

loop_
_space_group_symop_operation_xyz
   'x, y, z'

loop_
   _atom_site_label
   _atom_site_occupancy
   _atom_site_fract_x
   _atom_site_fract_y
   _atom_site_fract_z
   _atom_site_adp_type
   _atom_site_B_iso_or_equiv
   _atom_site_type_symbol
   C          1.0     0.408090      0.578090      0.906580     Biso  1.000000 C
   C          1.0     0.256380      0.412420      0.278170     Biso  1.000000 C
   C          1.0     0.368370      0.463770      0.969540     Biso  1.000000 C
   C          1.0     0.294090      0.458560      0.225280     Biso  1.000000 C
   C          1.0     0.362650      0.221840      0.340340     Biso  1.000000 C
   C          1.0     0.482660      0.370000      0.108180     Biso  1.000000 C
   C          1.0     0.654830      0.613440      0.821910     Biso  1.000000 C
   C          1.0     0.349410      0.591550      0.220010     Biso  1.000000 C
   C          1.0     0.346010      0.648150      0.274670     Biso  1.000000 C
   C          1.0     0.451330      0.344310      0.173230     Biso  1.000000 C
   C          1.0     0.595390      0.395050      0.180080     Biso  1.000000 C
   C          1.0     0.442490      0.383890      0.041090     Biso  1.000000 C
   C          1.0     0.576560      0.384440      0.854860     Biso  1.000000 C
   C          1.0     0.396860      0.542820      0.104970     Biso  1.000000 C
   C          1.0     0.500870      0.369250      0.845280     Biso  1.000000 C
   C          1.0     0.369170      0.469870      0.108480     Biso  1.000000 C
   C          1.0     0.599490      0.428260      0.918510     Biso  1.000000 C
   C          1.0     0.371790      0.306650      0.694990     Biso  1.000000 C
   C          1.0     0.202790      0.520790      0.341260     Biso  1.000000 C
   C          1.0     0.685720      0.389990      0.301940     Biso  1.000000 C
   C          1.0     0.625460      0.333550      0.296180     Biso  1.000000 C
   C          1.0     0.620380      0.508900      0.073360     Biso  1.000000 C
   C          1.0     0.152820      0.558980      0.391670     Biso  1.000000 C
   C          1.0     0.415650      0.572260      0.034730     Biso  1.000000 C
   C          1.0     0.558690      0.414520      0.983210     Biso  1.000000 C
   C          1.0     0.404800      0.698480      0.284590     Biso  1.000000 C
   C          1.0     0.656440      0.587930      0.190570     Biso  1.000000 C
   C          1.0     0.711390      0.647530      0.306240     Biso  1.000000 C
   C          1.0     0.619840      0.275830      0.352340     Biso  1.000000 C
   C          1.0     0.385840      0.263270      0.278910     Biso  1.000000 C
   C          1.0     0.605340      0.569920      0.021620     Biso  1.000000 C
   C          1.0     0.342980      0.316920      0.246790     Biso  1.000000 C
   C          1.0     0.406360      0.593640      0.167690     Biso  1.000000 C
   C          1.0     0.564510      0.213870      0.359730     Biso  1.000000 C
   C          1.0     0.942410      0.551530      0.407830     Biso  1.000000 C
   C          1.0     0.359810      0.051400      0.514560     Biso  1.000000 C
   C          1.0     0.255030      0.564010      0.302560     Biso  1.000000 C
   C          1.0     0.058630      0.455420      0.396410     Biso  1.000000 C
   C          1.0     0.584700      0.439090      0.054520     Biso  1.000000 C
   C          1.0     0.375490      0.188360      0.625050     Biso  1.000000 C
   C          1.0     0.486680      0.382050      0.976640     Biso  1.000000 C
   C          1.0     0.687180      0.489950      0.840990     Biso  1.000000 C
   C          1.0     0.375330      0.359040      0.190270     Biso  1.000000 C
   C          1.0     0.539910      0.635260      0.135130     Biso  1.000000 C
   C          1.0     0.463770      0.264190      0.275920     Biso  1.000000 C
   C          1.0     0.552340      0.942040      0.395890     Biso  1.000000 C
   C          1.0     0.042450      0.616300      0.487300     Biso  1.000000 C
   C          1.0     0.216070      0.570770      0.597990     Biso  1.000000 C
   C          1.0     0.288360      0.634730      0.326140     Biso  1.000000 C
   C          1.0     0.421640      0.715700      0.714060     Biso  1.000000 C
   C          1.0     0.489600      0.246150      0.683870     Biso  1.000000 C
   C          1.0     0.602080      0.324580      0.733940     Biso  1.000000 C
   C          1.0     0.545610      0.615080      0.057790     Biso  1.000000 C
   C          1.0     0.381450      0.048760      0.590200     Biso  1.000000 C
   C          1.0     0.244190      0.655200      0.458370     Biso  1.000000 C
   C          1.0     0.708140      0.557950      0.805330     Biso  1.000000 C
   C          1.0     0.647290      0.491160      0.908440     Biso  1.000000 C
   C          1.0     0.704990      0.587310      0.252900     Biso  1.000000 C
   C          1.0     0.401470      0.745060      0.348540     Biso  1.000000 C
   C          1.0     0.271040      0.682270      0.531820     Biso  1.000000 C
   C          1.0     0.479690      0.612420      0.010560     Biso  1.000000 C
   C          1.0     0.639450      0.659220      0.762270     Biso  1.000000 C
   C          1.0     0.392260      0.431160      0.900670     Biso  1.000000 C
   C          1.0     0.729270      0.423530      0.728100     Biso  1.000000 C
   C          1.0     0.508520      0.661810      0.805410     Biso  1.000000 C
   C          1.0     0.378890      0.541900      0.970100     Biso  1.000000 C
   C          1.0     0.878770      0.598050      0.414430     Biso  1.000000 C
   C          1.0     0.530300      0.633150      0.875090     Biso  1.000000 C
   C          1.0     0.431730     -0.005160      0.415950     Biso  1.000000 C
   C          1.0     0.453040      0.386500      0.905580     Biso  1.000000 C
   C          1.0     0.380680      0.427850      0.038390     Biso  1.000000 C
   C          1.0     0.344970      0.733240      0.403090     Biso  1.000000 C
   C          1.0     0.474360      0.615990      0.930390     Biso  1.000000 C
   C          1.0     0.381970      0.471070      0.831900     Biso  1.000000 C
   C          1.0     0.076180      0.532070      0.390590     Biso  1.000000 C
   C          1.0     0.227580      0.313720      0.546790     Biso  1.000000 C
   C          1.0     0.399520      0.837910      0.616000     Biso  1.000000 C
   C          1.0     0.228100      0.286770      0.472360     Biso  1.000000 C
   C          1.0     0.178100      0.393720      0.390560     Biso  1.000000 C
   C          1.0     0.556500      0.395700      0.112540     Biso  1.000000 C
   C          1.0     0.662040      0.242970      0.476930     Biso  1.000000 C
   C          1.0     0.313200      0.183480      0.502000     Biso  1.000000 C
   C          1.0     0.014520      0.561940      0.602460     Biso  1.000000 C
   C          1.0     0.000460      0.389100      0.488320     Biso  1.000000 C
   C          1.0     0.289690      0.673630      0.395610     Biso  1.000000 C
   C          1.0     0.529940      0.785950      0.325560     Biso  1.000000 C
   C          1.0     0.654730      0.313490      0.675260     Biso  1.000000 C
   C          1.0     0.620610      0.176620      0.475140     Biso  1.000000 C
   C          1.0     0.174850      0.612980      0.447160     Biso  1.000000 C
   C          1.0     0.316140      0.211520      0.577050     Biso  1.000000 C
   C          1.0     0.795920      0.629700      0.623130     Biso  1.000000 C
   C          1.0     0.293790      0.535750      0.239690     Biso  1.000000 C
   C          1.0     0.623740      0.374680      0.793930     Biso  1.000000 C
   C          1.0     0.750710      0.619060      0.689250     Biso  1.000000 C
   C          1.0     0.988680      0.609710      0.548380     Biso  1.000000 C
   C          1.0     0.630260      0.816270      0.533840     Biso  1.000000 C
   C          1.0     0.279430      0.279550      0.595220     Biso  1.000000 C
   C          1.0     0.409730      0.118690      0.623470     Biso  1.000000 C
   C          1.0     0.387990      0.548600      0.833200     Biso  1.000000 C
   C          1.0     0.306280      0.323180      0.657080     Biso  1.000000 C
   C          1.0     0.718450      0.363760      0.674840     Biso  1.000000 C
   C          1.0     0.577500      0.155680      0.411280     Biso  1.000000 C
   C          1.0     0.401530      0.354960      0.750870     Biso  1.000000 C
   C          1.0     0.258330      0.298350      0.348340     Biso  1.000000 C
   C          1.0     0.767410      0.363150      0.613820     Biso  1.000000 C
   C          1.0     0.413140      0.128680      0.419950     Biso  1.000000 C
   C          1.0     0.411920      0.244340      0.671510     Biso  1.000000 C
   C          1.0     0.489930      0.216200      0.332680     Biso  1.000000 C
   C          1.0     0.601310      0.696480      0.250160     Biso  1.000000 C
   C          1.0     0.207190      0.442020      0.332740     Biso  1.000000 C
   C          1.0     0.644530      0.262020      0.612830     Biso  1.000000 C
   C          1.0     0.368850      0.425100      0.766730     Biso  1.000000 C
   C          1.0     0.765050      0.645170      0.364340     Biso  1.000000 C
   C          1.0     0.623570      0.562060      0.946190     Biso  1.000000 C
   C          1.0     0.605640      0.755740      0.651560     Biso  1.000000 C
   C          1.0     0.567130      0.687880      0.759330     Biso  1.000000 C
   C          1.0     0.474700      0.342080      0.776330     Biso  1.000000 C
   C          1.0     0.740510      0.390830      0.358570     Biso  1.000000 C
   C          1.0     0.142840      0.573890      0.568820     Biso  1.000000 C
   C          1.0     0.866920      0.597860      0.609540     Biso  1.000000 C
   C          1.0     0.592470      0.811370      0.601600     Biso  1.000000 C
   C          1.0     0.230170      0.429670      0.624070     Biso  1.000000 C
   C          1.0     0.283900      0.395980      0.666610     Biso  1.000000 C
   C          1.0     0.346260      0.779930      0.467820     Biso  1.000000 C
   C          1.0     0.276040      0.227040      0.451410     Biso  1.000000 C
   C          1.0     0.111020      0.406210      0.424410     Biso  1.000000 C
   C          1.0     0.317310      0.646660      0.656970     Biso  1.000000 C
   C          1.0     0.757110      0.690760      0.429690     Biso  1.000000 C
   C          1.0     0.752910      0.557700      0.740470     Biso  1.000000 C
   C          1.0     0.118930      0.615560      0.506330     Biso  1.000000 C
   C          1.0     0.686960      0.273580      0.547290     Biso  1.000000 C
   C          1.0     0.552260      0.739620      0.705460     Biso  1.000000 C
   C          1.0     0.469040      0.644660      0.175620     Biso  1.000000 C
   C          1.0     0.434260      0.661610      0.769180     Biso  1.000000 C
   C          1.0     0.329710      0.589870      0.711410     Biso  1.000000 C
   C          1.0     0.533810      0.731180      0.267700     Biso  1.000000 C
   C          1.0     0.798300      0.447540      0.365490     Biso  1.000000 C
   C          1.0     0.468750      0.826920      0.651590     Biso  1.000000 C
   C          1.0     0.679490      0.760310      0.512840     Biso  1.000000 C
   C          1.0     0.265500      0.634920      0.596480     Biso  1.000000 C
   C          1.0     0.458200      0.800070      0.357860     Biso  1.000000 C
   C          1.0     0.474090      0.933130      0.395520     Biso  1.000000 C
   C          1.0     0.604620      0.610180      0.884270     Biso  1.000000 C
   C          1.0     0.370020      0.914450      0.505480     Biso  1.000000 C
   C          1.0     0.383410      0.599750      0.771080     Biso  1.000000 C
   C          1.0     0.775260      0.347890      0.479110     Biso  1.000000 C
   C          1.0     0.238460      0.509360      0.639740     Biso  1.000000 C
   C          1.0     0.777160      0.485720      0.712500     Biso  1.000000 C
   C          1.0     0.706580      0.717980      0.573620     Biso  1.000000 C
   C          1.0     0.593660      0.876410      0.415360     Biso  1.000000 C
   C          1.0     0.669180      0.714420      0.642640     Biso  1.000000 C
   C          1.0     0.361620      0.713080      0.661610     Biso  1.000000 C
   C          1.0     0.480090      0.765390      0.695300     Biso  1.000000 C
   C          1.0     0.770280      0.676360      0.565480     Biso  1.000000 C
   C          1.0     0.801190      0.673240      0.493000     Biso  1.000000 C
   C          1.0     0.534190      0.859600      0.619320     Biso  1.000000 C
   C          1.0     0.656900      0.702420      0.307700     Biso  1.000000 C
   C          1.0     0.688870      0.665600      0.699600     Biso  1.000000 C
   C          1.0     0.651680      0.754200      0.371640     Biso  1.000000 C
   C          1.0     0.190710      0.382680      0.572560     Biso  1.000000 C
   C          1.0     0.731410      0.338500      0.414400     Biso  1.000000 C
   C          1.0     0.698430      0.740910      0.436840     Biso  1.000000 C
   C          1.0     0.869070      0.639400      0.481880     Biso  1.000000 C
   C          1.0     0.817070      0.587440      0.365130     Biso  1.000000 C
   C          1.0     0.790660      0.517330      0.329650     Biso  1.000000 C
   C          1.0     0.576820      0.014390      0.427630     Biso  1.000000 C
   C          1.0     0.672610      0.284090      0.411640     Biso  1.000000 C
   C          1.0     0.462630      0.068320      0.407500     Biso  1.000000 C
   C          1.0     0.425380      0.187310      0.369490     Biso  1.000000 C
   C          1.0     0.376570      0.985560      0.471930     Biso  1.000000 C
   C          1.0     0.438070      0.860740      0.403070     Biso  1.000000 C
   C          1.0     0.596790      0.012940      0.503670     Biso  1.000000 C
   C          1.0     0.594140      0.807340      0.370000     Biso  1.000000 C
   C          1.0     0.382420      0.850370      0.457540     Biso  1.000000 C
   C          1.0     0.073350      0.450520      0.604130     Biso  1.000000 C
   C          1.0     0.528390      0.188080      0.648550     Biso  1.000000 C
   C          1.0     0.524410      0.303140      0.729580     Biso  1.000000 C
   C          1.0     0.840710      0.391700      0.478850     Biso  1.000000 C
   C          1.0     0.594910      0.199020      0.608150     Biso  1.000000 C
   C          1.0     0.487210      0.121300      0.636060     Biso  1.000000 C
   C          1.0     0.604400      0.146750      0.546940     Biso  1.000000 C
   C          1.0     0.911780      0.622240      0.547580     Biso  1.000000 C
   C          1.0     0.613960      0.879270      0.490690     Biso  1.000000 C
   C          1.0     0.386310      0.908540      0.581240     Biso  1.000000 C
   C          1.0     0.538590      0.081580      0.407110     Biso  1.000000 C
   C          1.0     0.493850      0.988360      0.614960     Biso  1.000000 C
   C          1.0     0.359500      0.121820      0.475490     Biso  1.000000 C
   C          1.0     0.354900      0.769920      0.606220     Biso  1.000000 C
   C          1.0     0.296060      0.236360      0.374640     Biso  1.000000 C
   C          1.0     0.593810      0.942670      0.534950     Biso  1.000000 C
   C          1.0     0.833800      0.474760      0.660620     Biso  1.000000 C
   C          1.0     0.962300      0.510300      0.632070     Biso  1.000000 C
   C          1.0     0.019060      0.578250      0.418990     Biso  1.000000 C
   C          1.0     0.927010      0.475540      0.411440     Biso  1.000000 C
   C          1.0     0.890560      0.531160      0.642850     Biso  1.000000 C
   C          1.0     0.499870      0.313390      0.228010     Biso  1.000000 C
   C          1.0     0.746690      0.323590      0.547690     Biso  1.000000 C
   C          1.0     0.879800      0.400320      0.549530     Biso  1.000000 C
   C          1.0     0.830560      0.411260      0.612730     Biso  1.000000 C
   C          1.0     0.293520      0.520390      0.696260     Biso  1.000000 C
   C          1.0     0.085090      0.529470      0.599420     Biso  1.000000 C
   C          1.0     0.691030      0.452920      0.255780     Biso  1.000000 C
   C          1.0     0.468090      0.694870      0.238550     Biso  1.000000 C
   C          1.0     0.344860      0.428180      0.172470     Biso  1.000000 C
   C          1.0     0.214950      0.327910      0.405300     Biso  1.000000 C
   C          1.0     0.645360      0.518720      0.146940     Biso  1.000000 C
   C          1.0     0.279090      0.338630      0.285120     Biso  1.000000 C
   C          1.0     0.955760      0.400830      0.554970     Biso  1.000000 C
   C          1.0     0.855120      0.438000      0.418230     Biso  1.000000 C
   C          1.0     0.684430      0.425970      0.791440     Biso  1.000000 C
   C          1.0     0.575060      0.342440      0.234840     Biso  1.000000 C
   C          1.0     0.116410      0.397710      0.557900     Biso  1.000000 C
   C          1.0     0.603320      0.643730      0.187990     Biso  1.000000 C
   C          1.0     0.734310      0.518660      0.276160     Biso  1.000000 C
   C          1.0     0.996030      0.438050      0.615400     Biso  1.000000 C
   C          1.0     0.988500      0.432580      0.425380     Biso  1.000000 C
   C          1.0     0.076870      0.376770      0.491540     Biso  1.000000 C
   C          1.0     0.647210      0.454130      0.192170     Biso  1.000000 C
   C          1.0     0.318300      0.448540      0.715430     Biso  1.000000 C
   C          1.0     0.416250      0.980470      0.611240     Biso  1.000000 C
   C          1.0     0.317870      0.748550      0.536850     Biso  1.000000 C
   C          1.0     0.542870      0.930040      0.594220     Biso  1.000000 C
   C          1.0     0.526600      0.059640      0.609920     Biso  1.000000 C
   C          1.0     0.581350      0.073710      0.556110     Biso  1.000000 C
